12

C    -0.29706  -1.35212   0.01402
C    -1.31922  -0.41825   0.04325
C    -1.02182   0.93381   0.02922
C     0.29719   1.35214  -0.01402
C     1.31914   0.41831  -0.04325
C     1.02176  -0.93376  -0.02922
H    -0.52937  -2.40701   0.02496
H    -2.34846  -0.74480   0.07699
H    -1.81914   1.66297   0.05202
H     0.52939   2.40745  -0.02497
H     2.34861   0.74414  -0.07699
H     1.81898  -1.66288  -0.05202
