10

C    -1.21835   0.13998   0.03949
C     0.20252  -0.21699   0.27789
C     1.30221   0.45732  -0.45728
H    -1.44434   1.18159   0.35174
H    -1.90878  -0.51276   0.59059
H    -1.48048   0.08273  -1.03298
H     0.45452  -0.81305   1.16058
H     1.06901   0.56718  -1.53140
H     1.48736   1.48444  -0.07798
H     2.25360  -0.08799  -0.36697
