10
Coordinates from ORCA-job ts
  C   -1.19943288913804      0.21204800175962      0.10965122018880
  C   0.18522292215928     -0.32253128549448      0.26725354199914
  C   1.34209115410134      0.35006231175658     -0.38298656064507
  H   -1.38003463610275      1.07662434240213      0.77744719804746
  H   -1.96401529016285     -0.54571311545597      0.33599411839757
  H   -1.37439614218275      0.57482293583505     -0.91716421336501
  H   0.41504748248037     -0.94342938729387      1.13838703245412
  H   0.80241023067123     -0.76853312104451     -0.78010825473642
  H   1.15756402368911      1.18034494528057     -1.06843795534161
  H   2.34206314448508      0.22632437225488      0.03726387300103
