150
/Users/tom/Desktop/figX12/CHcage_quinone_sp.xyz
H	5.074640	4.674730	1.619830
H	0.278810	6.144920	5.197730
H	1.664560	5.305510	-3.221840
H	-3.150160	6.697390	0.319860
H	-0.750300	4.641210	-0.643190
H	-0.423150	7.095890	-0.734490
H	2.133970	4.380240	2.678910
H	2.460990	6.835050	2.587890
O	1.207110	8.376770	0.874240
O	0.503960	3.099640	1.070260
C	0.114650	6.474580	-0.007010
C	-0.061660	5.151710	0.042130
C	0.664450	4.305150	1.025530
C	1.596140	5.001800	1.951630
C	1.772360	6.324620	1.902520
C	1.046340	7.171250	0.919070
H	2.549800	1.342230	1.506960
H	1.574670	9.445920	-1.342470
H	1.295000	9.763240	2.837560
H	1.407390	13.910360	2.494040
H	0.807570	14.201030	4.903910
H	0.418940	12.163880	6.314130
H	0.113290	8.550640	8.679130
H	-0.180190	6.498510	10.095660
H	-0.237490	4.258830	8.953640
H	-0.391760	0.428450	7.191860
H	0.022660	2.079920	3.227870
H	-0.489550	-1.850210	6.140740
H	-0.314490	-2.046810	3.657850
C	0.815610	10.794890	4.680550
C	0.691960	12.071030	5.261140
C	0.904910	13.199440	4.480540
C	1.239850	13.046810	3.141030
N	1.371850	11.829350	2.589570
C	1.169780	10.732130	3.325420
C	0.599290	9.598910	5.410720
C	0.426100	8.568020	6.033440
C	-0.108970	5.179690	8.383310
C	-0.075080	6.418390	9.011410
C	0.086640	7.555940	8.231390
C	0.224210	7.401290	6.840210
C	0.183670	6.217950	6.222740
C	0.015270	5.132540	6.982570
C	-0.044490	3.860570	6.324130
C	-0.107350	2.750980	5.828270
C	-0.092550	1.230120	3.904200
C	-0.176590	1.441120	5.288150
C	-0.320610	0.306580	6.108790
C	-0.373850	-0.953850	5.529350
C	-0.279950	-1.071890	4.148660
N	-0.140660	0.007920	3.363100
H	0.648970	1.682230	-0.830300
H	3.191180	13.282380	-1.450120
H	3.974480	12.970120	-3.799310
H	3.571760	10.766900	-4.933450
H	2.277320	7.176670	-6.970660
H	2.072240	4.951160	-8.123810
H	1.663120	2.912920	-6.716080
H	0.988440	-0.654630	-4.442070
H	0.503670	-2.696910	-3.067710
H	0.112710	-2.440180	-0.612670
C	3.008040	12.346830	-1.983210
C	3.446730	12.162930	-3.288500
C	3.218710	10.945350	-3.915950
C	2.536400	9.925930	-3.225330
N	2.353280	11.377810	-1.323490
C	2.112960	10.202800	-1.917220
C	2.308700	8.652120	-3.808090
C	2.151470	7.563220	-4.328070
C	1.984530	6.308400	-5.002240
C	2.095420	6.262460	-6.404070
C	1.980170	5.031420	-7.038330
C	1.753990	3.901500	-6.263290
C	1.751120	5.231960	-4.247570
C	1.633930	4.056460	-4.870520
C	1.363930	2.900380	-4.068810
C	1.127910	1.877150	-3.454200
C	0.626590	0.726410	-1.358180
C	0.859240	0.682420	-2.740150
C	0.810590	-0.576600	-3.367510
C	0.545370	-1.707790	-2.607470
C	0.328270	-1.574180	-1.241970
N	0.371710	-0.373570	-0.642880
Pd	1.849770	11.621550	0.630240
Pd	0.091870	-0.200280	1.356290
H	8.872850	6.535200	1.805770
C	5.175020	1.236420	1.788840
H	4.123250	-3.277570	2.099770
H	5.809290	-1.422450	2.099730
H	1.705320	-2.724270	1.797740
C	2.465110	-1.939380	1.804210
C	3.812060	-2.239310	1.968790
C	4.746010	-1.210740	1.968200
C	4.307760	0.115590	1.801640
N	2.046590	-0.673200	1.643170
C	2.931070	0.327820	1.641470
C	5.854620	2.244980	1.775050
H	8.524050	2.235140	1.908660
H	9.980630	4.281570	1.926690
C	6.101130	4.593890	1.689090
C	6.698730	3.401910	1.766140
C	8.092550	3.235490	1.848530
C	8.893940	4.369860	1.859120
C	8.284990	5.616560	1.791930
C	6.881500	5.676540	1.705040
C	6.259100	6.966240	1.630290
C	5.837070	8.106290	1.565750
H	7.415520	10.243220	1.980130
H	6.678040	12.638840	1.834500
H	4.294700	13.138330	1.279690
H	3.369300	9.088230	1.021540
C	4.129620	9.848400	1.213110
C	5.446150	9.469590	1.514240
C	6.381190	10.497770	1.740440
C	5.975590	11.822460	1.659670
C	4.652380	12.108570	1.352240
N	3.758040	11.131800	1.133830
H	-1.449820	2.328090	0.902970
H	-2.416260	-1.713310	1.163720
H	-4.838030	-1.238660	0.785060
H	-5.576720	1.141240	0.476060
H	-8.039510	7.147430	-0.130060
H	-6.553250	9.171090	-0.165420
H	-6.971220	4.885290	0.119250
H	-0.594860	10.067210	0.462690
H	-2.114990	14.597260	-0.693420
H	0.282640	14.083500	-0.200600
H	-3.800280	12.745280	-0.618090
C	-2.748590	12.551680	-0.396140
C	-1.814380	13.579300	-0.437850
C	-0.479930	13.302250	-0.164380
N	-0.076810	12.060440	0.152040
C	-0.962960	11.060450	0.196950
C	-2.325130	11.248330	-0.076610
C	-3.195270	10.129430	-0.028660
C	-3.887180	9.130180	0.024930
C	-6.369310	5.794900	0.108390
C	-6.956330	7.046440	-0.030430
C	-6.138030	8.168680	-0.050050
C	-4.749040	7.986260	0.072410
C	-4.173210	6.790000	0.220770
C	-4.969660	5.718790	0.236150
C	-4.367250	4.426210	0.391880
C	-3.953890	3.288230	0.520790
C	-2.773070	-0.691680	1.015760
C	-4.118380	-0.418580	0.808650
C	-4.524490	0.897400	0.637680
C	-3.568180	1.930480	0.671220
C	-2.229280	1.563390	0.874500
N	-1.856700	0.289290	1.044520
