134
/Users/tom/Desktop/figX12/Ncage_sp.xyz
N	-1.822345	0.347775	1.074115
C	-2.191486	1.620217	0.885862
C	-3.530484	1.988401	0.685477
C	-4.490641	0.958394	0.677264
C	-4.088338	-0.355860	0.867582
C	-2.742387	-0.630194	1.068000
C	-3.915303	3.343040	0.507301
C	-4.333923	4.477209	0.363093
C	-4.945547	5.764715	0.200636
N	-4.156799	6.840933	0.164687
C	-4.742995	8.031616	0.010591
C	-6.134367	8.204089	-0.093326
C	-6.944630	7.076695	-0.052093
C	-6.347166	5.830507	0.089463
C	-3.888023	9.179104	-0.063229
C	-3.197861	10.176799	-0.153896
C	-2.306559	11.274941	-0.257351
C	-0.962249	11.084033	0.090434
N	-0.051803	12.058622	0.001247
C	-0.409176	13.275650	-0.440637
C	-1.725002	13.555116	-0.792306
C	-2.685567	12.555139	-0.701716
H	-3.722055	12.751932	-0.983635
H	0.374894	14.032617	-0.515663
H	-1.989469	14.552512	-1.148558
H	-0.629176	10.110992	0.457698
H	-6.942812	4.917195	0.117120
H	-6.557393	9.202735	-0.212358
H	-8.029697	7.169421	-0.137417
H	-5.543096	1.203489	0.519109
H	-4.811103	-1.173494	0.864233
H	-2.387794	-1.650602	1.228255
H	-1.408807	2.382122	0.894443
N	3.649262	11.066744	1.371014
C	4.342569	11.926762	2.135224
C	5.526391	11.554317	2.757293
C	5.995803	10.258244	2.599106
C	5.271972	9.350356	1.802601
C	4.096243	9.815206	1.196119
H	3.505707	9.152420	0.559826
H	3.931369	12.930383	2.258288
H	6.067157	12.280533	3.366280
H	6.917130	9.932942	3.085999
C	5.729323	8.015820	1.632764
C	6.206106	6.897237	1.579662
C	6.871364	5.625511	1.551061
C	8.278073	5.600027	1.550121
C	8.919636	4.367764	1.552582
C	8.147566	3.213067	1.565189
C	6.748317	3.345697	1.567644
N	6.118632	4.523973	1.552956
H	10.010340	4.306285	1.550985
H	8.606215	2.223105	1.576731
C	5.926322	2.173774	1.600406
C	2.987493	0.307464	1.571776
N	2.078847	-0.670238	1.599304
C	4.363143	0.059593	1.683170
C	4.773758	-1.277178	1.832087
C	3.814174	-2.281619	1.861506
C	2.470642	-1.947257	1.742252
H	1.692000	-2.713354	1.757900
H	5.835222	-1.516416	1.925584
H	4.102600	-3.328019	1.979082
C	5.251151	1.163089	1.640482
H	8.844093	6.532469	1.548978
Pd	0.127783	-0.158353	1.355063
Pd	1.824890	11.609328	0.635033
N	0.354214	-0.385004	-0.647115
C	0.290787	-1.597420	-1.220173
C	0.468699	-1.759486	-2.588169
C	0.715694	-0.645527	-3.379412
C	0.787300	0.625554	-2.779149
C	0.593502	0.698100	-1.392388
C	1.041921	1.808509	-3.517373
C	1.260992	2.834566	-4.133446
C	1.505845	4.002505	-4.926037
N	1.638850	5.167443	-4.285849
C	1.587227	3.872437	-6.323867
C	1.788940	5.017082	-7.084090
C	1.921379	6.236864	-6.431512
C	1.852682	6.257428	-5.026485
C	2.047249	7.498359	-4.332000
C	2.262389	8.565170	-3.786959
C	2.109453	10.127681	-1.896998
N	2.453077	11.260715	-1.271376
C	2.595268	9.801206	-3.171856
C	3.445122	10.731043	-3.800681
C	3.777261	11.908091	-3.143658
C	3.272934	12.140347	-1.869853
H	0.090360	-2.449783	-0.567800
H	0.409565	-2.757587	-3.026578
H	0.860936	-0.747118	-4.456968
H	1.484569	2.892031	-6.791685
H	1.848424	4.957047	-8.173174
H	2.085873	7.160949	-6.987311
H	3.842960	10.513729	-4.793798
H	4.436476	12.645235	-3.605663
H	3.536032	13.040228	-1.309930
H	0.635537	1.664330	-0.885102
N	-0.045123	0.108796	3.363664
C	-0.150521	-0.953049	4.178082
C	-0.189528	-0.804825	5.558275
C	-0.114406	0.468302	6.106153
C	-0.006289	1.585187	5.255912
C	0.020637	1.343583	3.874515
C	0.082072	2.903452	5.773778
C	0.156647	4.010382	6.274274
C	0.227002	5.268586	6.958485
N	0.331299	6.379134	6.224235
C	0.372952	7.545447	6.874012
C	0.309419	7.657125	8.274245
C	0.216254	6.493677	9.026961
C	0.175708	5.273515	8.364721
C	0.490873	8.737207	6.087038
C	0.585877	9.780002	5.467762
C	1.104097	10.852117	3.347883
N	1.207595	11.917018	2.547017
C	0.922398	13.144662	3.013416
C	0.538849	13.341178	4.334505
C	0.427259	12.245898	5.181772
C	0.701906	10.957655	4.686519
H	-0.202062	-1.938642	3.710826
H	-0.278024	-1.687592	6.193459
H	0.104290	2.177492	3.174181
H	-0.139190	0.613995	7.188353
H	0.098627	4.334150	8.913656
H	0.170668	6.539004	10.117387
H	0.337580	8.639174	8.748788
H	0.116419	12.374341	6.220400
H	0.320232	14.349396	4.691706
H	1.009259	13.978768	2.313722
H	1.356186	9.875948	2.928026
H	1.432286	9.446131	-1.376795
H	2.628378	1.331819	1.453632
