146
/Users/tom/Desktop/figX12/Ncage_quinone_sp.xyz
N	-1.897315	0.086872	0.984835
C	-2.203366	1.377187	0.813431
C	-3.524742	1.806191	0.631335
C	-4.533370	0.824827	0.611120
C	-4.191044	-0.509855	0.777223
C	-2.858252	-0.849120	0.969595
C	-3.840119	3.184109	0.492636
C	-4.202137	4.342405	0.393283
C	-4.778718	5.648393	0.272877
N	-3.971019	6.713756	0.262493
C	-4.543385	7.915938	0.132986
C	-5.932813	8.107603	0.033954
C	-6.760323	6.993422	0.053609
C	-6.178856	5.737465	0.166854
C	-3.692697	9.064680	0.076122
C	-3.041094	10.088422	-0.002755
C	-2.231766	11.250337	-0.085735
C	-0.860384	11.134202	0.173172
N	-0.036118	12.184564	0.111935
C	-0.507093	13.400422	-0.209321
C	-1.855926	13.600645	-0.478112
C	-2.730830	12.522643	-0.417422
H	-3.793459	12.654953	-0.631728
H	0.211736	14.221723	-0.251547
H	-2.214469	14.597543	-0.741302
H	-0.428237	10.165785	0.442101
H	-6.785302	4.831095	0.174751
H	-6.339918	9.114885	-0.064883
H	-7.844154	7.103816	-0.027363
H	-5.574598	1.120242	0.465581
H	-4.951773	-1.292256	0.764378
H	-2.548490	-1.886105	1.117149
H	-1.373612	2.089130	0.831390
N	3.773110	11.327290	1.194381
C	4.701460	12.267666	1.423513
C	6.002970	11.927334	1.767618
C	6.348788	10.586637	1.865507
C	5.373995	9.600938	1.622492
C	4.080444	10.029670	1.297376
H	3.274567	9.314352	1.111663
H	4.389376	13.310561	1.330069
H	6.736458	12.713119	1.954571
H	7.365596	10.290327	2.130492
C	5.700593	8.219928	1.674132
C	6.077622	7.062772	1.704280
C	6.674530	5.761887	1.750202
C	8.076692	5.689219	1.838211
C	8.677595	4.438492	1.887064
C	7.866658	3.312493	1.857547
C	6.474310	3.488108	1.772139
N	5.882584	4.685838	1.710682
H	9.763480	4.340828	1.955063
H	8.288613	2.307541	1.903679
C	5.640286	2.326920	1.759981
C	2.814379	0.255456	1.624146
N	1.999831	-0.803347	1.619261
C	4.199745	0.123798	1.780536
C	4.722846	-1.172213	1.935222
C	3.857102	-2.258930	1.928659
C	2.493977	-2.042575	1.768974
H	1.782397	-2.871100	1.757021
H	5.797949	-1.316512	2.061853
H	4.234197	-3.276183	2.049430
C	4.999593	1.293862	1.771280
H	8.669474	6.604054	1.868170
Pd	0.039481	-0.405924	1.315559
Pd	1.887620	11.815565	0.630038
N	0.348540	-0.578052	-0.674355
C	0.299581	-1.753268	-1.319656
C	0.542204	-1.832855	-2.685426
C	0.831557	-0.673323	-3.393192
C	0.881309	0.557976	-2.713967
C	0.631694	0.548679	-1.335183
C	1.159568	1.782308	-3.373615
C	1.382668	2.832968	-3.945142
C	1.624227	4.014044	-4.718613
N	1.738418	5.177905	-4.071998
C	1.718289	3.890284	-6.116503
C	1.912018	5.038482	-6.872597
C	2.024469	6.256474	-6.214370
C	1.944523	6.271952	-4.809816
C	2.115713	7.521681	-4.127215
C	2.307325	8.615840	-3.630199
C	2.150378	10.273379	-1.824070
N	2.434262	11.469104	-1.294730
C	2.594756	9.901637	-3.100468
C	3.352326	10.840114	-3.826437
C	3.630693	12.077424	-3.261340
C	3.160832	12.361175	-1.985352
H	0.059465	-2.639732	-0.728850
H	0.498917	-2.801567	-3.186827
H	1.026481	-0.709075	-4.466940
H	1.630880	2.909888	-6.587133
H	1.980879	4.982808	-7.961316
H	2.181673	7.185175	-6.764395
H	3.721206	10.585231	-4.821631
H	4.216996	12.824538	-3.799029
H	3.374680	13.316428	-1.501238
H	0.664542	1.475567	-0.756802
N	-0.206352	-0.101348	3.306004
C	-0.389354	-1.119095	4.160535
C	-0.500003	-0.902229	5.527955
C	-0.420553	0.394152	6.017993
C	-0.230061	1.463252	5.122714
C	-0.127336	1.155450	3.759051
C	-0.133943	2.801720	5.585877
C	-0.060406	3.921184	6.057628
C	0.002982	5.185219	6.730405
N	0.154255	6.289621	5.994278
C	0.191687	7.457745	6.641883
C	0.072672	7.576410	8.038298
C	-0.069575	6.419506	8.792443
C	-0.103145	5.197642	8.133528
C	0.375631	8.650350	5.870412
C	0.547259	9.709310	5.296750
C	1.116443	10.913419	3.257057
N	1.361966	12.034465	2.572480
C	1.272390	13.231824	3.171639
C	0.936638	13.339053	4.515585
C	0.691873	12.185535	5.249681
C	0.775828	10.932376	4.615914
H	-0.445469	-2.123956	3.736480
H	-0.649721	-1.749998	6.198272
H	0.038812	1.944057	3.021097
H	-0.505540	0.593131	7.088414
H	-0.217428	4.261921	8.682017
H	-0.159633	6.471232	9.879754
H	0.098229	8.560357	8.508950
H	0.425756	12.242989	6.306875
H	0.868969	14.324749	4.979795
H	1.475364	14.113861	2.560810
H	1.191205	9.967321	2.715352
H	1.568351	9.579674	-1.211856
H	2.361592	1.241764	1.487287
C	1.016266	7.145266	0.971262
C	2.230641	6.309606	1.104280
C	2.163013	4.968571	1.120888
C	0.859366	4.279843	1.009903
C	-0.355860	5.115138	0.886587
C	-0.287950	6.456157	0.865509
O	0.785127	3.055198	1.019931
O	1.094031	8.369072	0.944753
H	3.192139	6.821808	1.195865
H	3.066565	4.360227	1.226682
H	-1.192189	7.063335	0.758546
H	-1.318155	4.603388	0.799433
