138
Coordinates from ORCA-job /scratch/2487425.1.multiway.q/cage_linker1_d4h
  Pd  6.05714954626947     -0.00024579838719      0.00055173622273
  Pd  -6.05714152646069     -0.00107087230282     -0.00050670878105
  N   -6.03794157079828      1.43347059542866     -1.43558880487236
  N   6.03790144706759     -1.43467656148717      1.43573848555024
  N   6.04026936600122      1.43415523141026     -1.43465213364054
  N   -6.04026833409036     -1.43557708463712      1.43460762308125
  N   -6.03890729615127     -1.43629917575724     -1.43487146347110
  N   6.03893407094526      1.43509481148118      1.43482702235964
  N   6.03927412162826     -1.43556456314346     -1.43376295889700
  N   -6.03924716636789      1.43414177353795      1.43391364986774
  C   -7.18615121023313      1.92394719239077     -1.92710630439666
  C   7.18609956830383     -1.92575408108250      1.92668138357126
  H   -8.11577548862159      1.51749596311360     -1.52140678973532
  H   8.11572905803973     -1.51986968565841      1.52043096032689
  C   -7.18783797907123      2.90711530698173     -2.91039627174550
  C   7.18776204943820     -2.90884719140428      2.91004589379288
  H   -8.13509421828349      3.29011011972137     -3.29426892361870
  H   8.13500464430185     -3.29237167348073      3.29342120177909
  C   -5.97921312406959      3.39019911054549     -3.39252304359880
  C   5.97912553448485     -3.39118246088349      3.39288603012937
  H   -5.95160923772118      4.16227450231081     -4.16466319851102
  H   5.95151040413236     -4.16318198299807      4.16510153406368
  C   -4.77283873490411      2.87620001136225     -2.87755030819145
  C   4.77276325855515     -2.87654911937640      2.87851886112064
  C   -4.86442542979937      1.88639425027548     -1.88766193886792
  C   4.86437411019030     -1.88690208090884      1.88847622222699
  H   -3.95893992544285      1.45468295981960     -1.45507121675401
  H   3.95889832160759     -1.45472255884226      1.45633156017430
  C   -3.51069815226673      3.33221637460505     -3.33256059877352
  C   3.51061318144898     -3.33184808790237      3.33422242542334
  C   -2.44601283642421      3.75051879428429     -3.75130100456344
  C   2.44593788700105     -3.74958232363584      3.75354742089194
  C   -1.21239755099286      4.25229166144402     -4.25343917813387
  C   1.21233640633936     -4.25067058211373      4.25641098398470
  C   -1.20432621140084      5.24799597414089     -5.24966476636782
  C   1.20429579279770     -5.24504870459786      5.25395634720672
  H   -2.14944363301140      5.63387312090570     -5.63576379830921
  H   2.14942707723561     -5.63036988279354      5.64057716795264
  C   0.00127681931165      5.73789375573875     -5.73974095852012
  C   -0.00128748684796     -5.73435567220218      5.74467097971793
  H   0.00096310917493      6.50989058248532     -6.51217007413752
  H   -0.00092524435882     -6.50534529027349      6.51810496956951
  C   1.20727158515244      5.24856726709778     -5.25005572749089
  C   -1.20730413931281     -5.24577330126667      5.25428740251394
  H   2.15209489948405      5.63486887400903     -5.63644683830413
  H   -2.15211359332345     -5.63163620383014      5.64114739526622
  C   1.21611921218540      4.25288531814298     -4.25383094009495
  C   -1.21617951252801     -4.25140764731634      4.25674423274208
  C   0.00205633914391      3.75736353585354     -3.75816129769078
  C   -0.00213365273146     -3.75645494388401      3.76046571846117
  H   0.00237529294386      2.98611240746739     -2.98645537326937
  H   -0.00247647657478     -2.98623845861665      2.98772680330128
  C   7.18898761216889      1.92400939924546     -1.92559666901935
  C   -7.18900007575477     -1.92619591815335      1.92475238670155
  H   8.11820381383924      1.51721265252937     -1.51930073538794
  H   -8.11820821001355     -1.51997426639613      1.51786846050749
  C   7.19164220622550      2.90700370759219     -2.90906773764998
  C   -7.19168467581910     -2.90928109733033      2.90813409803129
  H   8.13927016074008      3.28952850720740     -3.29249711307776
  H   -8.13932542121419     -3.29245208305904      3.29088369685440
  C   5.98351347521353      3.39056167107461     -3.39198772417105
  C   -5.98356911307233     -3.39208329064170      3.39184254135177
  H   5.95675729952405      4.16250804813982     -4.16428734123651
  H   -5.95682084967696     -4.16406573531274      4.16410612754125
  C   4.77662301130072      2.87720778560116     -2.87760492385490
  C   -4.77666508140609     -2.87792350704921      2.87829649742313
  C   4.86723153570899      1.88754846618871     -1.88748223585423
  C   -4.86724242879588     -1.88826549455678      1.88817618973164
  H   3.96131065784777      1.45633631817683     -1.45530984405543
  H   -3.96130952831112     -1.45643711007489      1.45664474678163
  C   3.51480941721627      3.33351536798432     -3.33321349573030
  C   -3.51486633312398     -3.33346190339289      3.33471550667427
  C   2.45006120238473      3.75163726094978     -3.75196522233336
  C   -2.45012187774999     -3.75095542316326      3.75410709123911
  C   -7.18730997533830     -1.92746913355812     -1.92524226230468
  C   7.18734519914483      1.92552551775535      1.92591443821253
  H   -8.11677383931680     -1.52126888491995     -1.51892388556038
  H   8.11680665834342      1.51867892033243      1.52023639847781
  C   -7.18935666892535     -2.91104555360945     -2.90812747572320
  C   7.18941093099702      2.90913195623493      2.90877039479774
  H   -8.13674766752618     -3.29464922975260     -3.29105976582410
  H   8.13681006504555      3.29209286216548      3.29232692214050
  C   -5.98091958901030     -3.39377842051417     -3.39108623009640
  C   5.98098228055096      3.39271684004992      3.39090000928962
  H   -5.95364442313860     -4.16617012980303     -4.16292164538906
  H   5.95371649372228      4.16514572077751      4.16269846743979
  C   -4.77435257626087     -2.87905176750813     -2.87730989464837
  C   4.77440318889740      2.87876880069936      2.87636556125981
  C   -4.86557299823949     -1.88891324969977     -1.88772188386835
  C   4.86560506965373      1.88850246767562      1.88689974299101
  H   -3.95992426231361     -1.45663647486115     -1.45603924100694
  H   3.95995477019837      1.45679347017982      1.45465583950680
  C   -3.51232195493156     -3.33463362113253     -3.33306000819998
  C   3.51238144350014      3.33515554979407      3.33132684816733
  C   -2.44757445860633     -3.75248387904624     -3.75208201998589
  C   2.44763234290085      3.75369591023511      3.74966531919328
  C   -1.21369392717539     -4.25341734688412     -4.25441589254255
  C   1.21374922150926      4.25542998558624      4.25118558996686
  C   0.00046366472690     -3.75846859051700     -3.75842194192691
  C   -0.00039784361750      3.75969832732437      3.75594013834312
  H   0.00030919434647     -2.98782554356477     -2.98610740286318
  H   -0.00020727591759      2.98789403243906      2.98478742453943
  C   1.21482443248455     -4.25320241924095     -4.25413659037039
  C   -1.21477059196113      4.25508765044226      4.25097375214450
  C   1.20656570513734     -5.24810442787379     -5.25115176931675
  C   -1.20653568864067      5.25147259267924      5.24651101663707
  H   2.15160867162034     -5.63382771547492     -5.63758655715981
  H   -2.15159204687126      5.63769422479888      5.63241442105229
  C   0.00086562121915     -5.73741158370339     -5.74158264771357
  C   -0.00084961282811      5.74159670788594      5.73615247924334
  H   0.00104192521211     -6.50882532524827     -6.51459467598794
  H   -0.00103972064068      6.51414368435841      6.50803179298977
  C   -1.20503069842944     -5.24831735442038     -5.25143055942899
  C   1.20506132463098      5.25181613083179      5.24671536945980
  H   -2.14992665979445     -5.63419908843549     -5.63806511610253
  H   2.14994179395231      5.63831015554286      5.63277403459276
  C   7.18779785307846     -1.92677496671463     -1.92380341770380
  C   -7.18776250184753      1.92445031530290      1.92488363454807
  H   8.11717039224392     -1.52055611902459     -1.51729301007076
  H   -8.11713890467932      1.51755940053684      1.51905378918177
  C   7.19008609681640     -2.91043397178289     -2.90660755646936
  C   -7.19002918860144      2.90799221834901      2.90780586479890
  H   8.13757440334891     -3.29405987036288     -3.28927757980009
  H   -8.13750913296558      3.29084982536181      3.29126740759449
  C   5.98176998911305     -3.39322580567443     -3.38980838567796
  C   -5.98170403917230      3.39165863570759      3.39010374380749
  H   5.95468154132081     -4.16569230372671     -4.16157623682857
  H   -5.95460539773923      4.16406095974583      4.16193472741791
  C   4.77507381810618     -2.87846623387248     -2.87636351276637
  C   -4.77501874392077      2.87784562682547      2.87568796876642
  C   4.86605324138633     -1.88821256208480     -1.88687260775698
  C   -4.86601795730580      1.88760905644198      1.88617895256349
  H   3.96029710370867     -1.45587206481049     -1.45548211271945
  H   -3.96026916289735      1.45598494923354      1.45405581807596
  C   -3.51309073286849      3.33439766836241      3.33076056042384
  C   -2.44843967664403      3.75305887951342      3.74922212670073
  C   2.44850046086832     -3.75206221971329     -3.75151498886555
  C   3.51315285171241     -3.33414004696445     -3.33232137067313
