138
Coordinates from ORCA-job /scratch/2487426.1.multiway.q/cage_linker1_helical
  N   -2.72821430062540     -3.70778678425299     -3.54488221828802
  N   1.11273430748693      1.68889882646071      6.19989127034557
  C   -3.19014757109046     -4.81984545594750     -4.14080444051909
  H   -3.00700189671146     -4.92792349297732     -5.21211896238822
  C   -3.87215031649037     -5.79347294238530     -3.41882955561326
  H   -4.24581191783807     -6.68029106751691     -3.93445676560718
  C   -4.06161187764587     -5.62700853215333     -2.05263246986943
  H   -4.58869246310836     -6.38144827487186     -1.46464785191083
  C   -3.55966677171501     -4.47144113824444     -1.42161182206809
  C   -2.90420459503324     -3.53138471465394     -2.23064072650731
  H   -2.52371368584999     -2.60604034966970     -1.79344112641668
  C   -3.69777704279902     -4.22333020490077     -0.03195842449176
  C   -3.80878510726369     -3.98267089271968      1.15748632412138
  C   -3.96421835071553     -3.68026821123669      2.54091371029597
  C   -5.00054163549771     -4.27458626131669      3.28682301927454
  H   -5.66855761195939     -4.99109021889351      2.80545393148708
  C   -5.17853375626849     -3.93585486272293      4.62416058594934
  H   -5.98759905698569     -4.39300003821421      5.19704616957072
  C   -4.33365204322180     -3.01543600061784      5.23643450138829
  H   -4.48702670565016     -2.73870802054558      6.28127267321653
  C   -3.27759495457817     -2.43033802350247      4.51059088761941
  C   0.73229606864644      2.32313167985480      7.32043678557842
  H   1.38357292937148      3.11727824947098      7.69239089098128
  C   -0.44374471338233      1.97870214731700      7.97690340309525
  H   -0.72607800235390      2.50427900852869      8.89075741695111
  C   -1.24530400806257      0.97149006507402      7.45648263255057
  H   -2.17219130141283      0.67916326985844      7.95372329490982
  C   -0.86343707907129      0.32476910206630      6.26483617457851
  C   0.35014693643599      0.71839934804800      5.68247778298132
  H   0.70941484176783      0.22843705805905      4.77524945764404
  C   -1.67164850925768     -0.66946837177810      5.65506554482133
  C   -2.40700194932884     -1.48683509856794      5.12890194270636
  C   -3.09878249315824     -2.76781711620691      3.16154262007528
  N   -0.13075608665280     -3.36391823963802     -4.73604548128797
  N   3.60723564614256      0.37444299024237      5.73159213935493
  C   0.34147274838242     -3.80364669233814     -5.91410713723201
  H   -0.17103546303361     -3.46151928547849     -6.81573161370120
  C   1.43480540308460     -4.66124965626316     -5.97717887401173
  H   1.79303730896832     -5.01081235807719     -6.94731705967407
  C   2.05884048203836     -5.06571594732375     -4.80321678217000
  H   2.91816861017442     -5.73932060791207     -4.82892080884837
  C   1.57759440332612     -4.59086522793220     -3.56889954804009
  C   0.46555402361505     -3.73781373564632     -3.59714950874134
  H   0.04254991737726     -3.36367280620668     -2.66303105974519
  C   2.15602595822916     -4.94439134008184     -2.32114838882419
  C   2.62475237398139     -5.23207206159675     -1.23422750564118
  C   3.14809503304900     -5.54507238816753      0.05483441041214
  C   3.54254648798070     -6.85690756742976      0.37867490263217
  H   3.46834684946760     -7.64359373588652     -0.37443724760802
  C   4.01377641834963     -7.14868100146587      1.65529091956108
  H   4.31755563630311     -8.16738674220875      1.90501876290737
  C   4.11292268783576     -6.14848704476412      2.61572531487896
  H   4.49206697372150     -6.37938995546751      3.61253754472455
  C   3.73802280479992     -4.82829714207105      2.30123940754040
  C   4.00532064722393      0.11656242961256      6.98853991029516
  H   3.97881829091879      0.94306141389390      7.70236860702283
  C   4.42286530436422     -1.15451106102753      7.36602297218823
  H   4.75130213625847     -1.33355373760871      8.39152034422386
  C   4.41113225345310     -2.18171285352180      6.43286844104002
  H   4.72633519300001     -3.18958734373287      6.71025837433567
  C   3.99371280494578     -1.91440356035256      5.11411970400974
  C   3.61305843676258     -0.59799295765546      4.81304183558460
  H   3.30044782522857     -0.33361175165445      3.80070072762426
  C   3.92925621091384     -2.92032142164510      4.11814683850453
  C   3.84225045829419     -3.79720032809334      3.27665159741619
  C   3.25175093418424     -4.53408988736766      1.01963270640575
  N   4.50855169970602      2.67994511138220      4.18549500002885
  N   -0.94378137825518     -0.67260554851316     -5.59989375475027
  C   5.71235149050523      2.80703188592870      4.76752476655992
  H   5.78129872335833      2.56906686121841      5.83083610507023
  C   6.82422668322241      3.22274985080346      4.04403372539855
  H   7.78698551613163      3.32376751238803      4.54908657477414
  C   6.69293145080766      3.50869339609365      2.69070030496671
  H   7.54941708885584      3.84215951778550      2.10155739081436
  C   5.43536426405079      3.36385965446401      2.07521101500579
  C   4.36815921028709      2.94378558329240      2.88123529935973
  H   3.37171272742251      2.83398721909583      2.44872818033754
  C   5.20309923068400      3.63389196428582      0.70158429520870
  C   4.95335155991121      3.86036255744953     -0.46867885149253
  C   4.61984051942774      4.11897564074334     -1.82971716393971
  C   5.20803261193966      5.18822975627954     -2.53159805842504
  H   5.94895396666782      5.81755817657977     -2.03521591135621
  C   4.83374967130800      5.44699676003737     -3.84667953039014
  H   5.28744127691680      6.28137906381108     -4.38509472601566
  C   3.88763452160715      4.64846827453718     -4.48190367969347
  H   3.58776783497536      4.86231080762946     -5.50945759312894
  C   3.30802468576949      3.56117195704909     -3.79906444965795
  C   -1.42362601005342     -0.32550579151746     -6.80623998132129
  H   -2.21131093363661     -0.95176489763334     -7.23027344972825
  C   -0.94472054892273      0.79176532190620     -7.48016548766657
  H   -1.35700930737880      1.05096301136879     -8.45685850535921
  C   0.04117542957272      1.57106576836073     -6.89173376246600
  H   0.43299749437392      2.45590346570350     -7.39716243043615
  C   0.54104105746635      1.21688625224340     -5.62324905721890
  C   0.01346207525958      0.06347120487815     -5.02112921038547
  H   0.38068932602469     -0.26681831237359     -4.04763308643386
  C   1.52257788800094      2.00258761679544     -4.96787353118750
  C   2.34713906815375      2.72424019840215     -4.43429327541314
  C   3.67738428811846      3.30453716921643     -2.47177006359159
  N   -3.46683235540416     -1.06919052261534     -4.33160776687288
  N   2.04843928932244      3.99962370831109      4.73869720124179
  C   -4.67600612941696     -1.42810204336825     -4.79251013657682
  H   -4.74170553280646     -2.36564514436540     -5.34742876232506
  C   -5.79698632969205     -0.63874034756325     -4.56490714908315
  H   -6.76347860949890     -0.95898222304786     -4.95865310282494
  C   -5.67017210592030      0.53838379627756     -3.83648919873623
  H   -6.53732736386575      1.17133908580797     -3.63643600376124
  C   -4.40444708303710      0.91252189967163     -3.34779438406904
  C   -3.32731069812540      0.06330255888840     -3.63397667991233
  H   -2.32472549505987      0.32297738103315     -3.28897955562868
  C   -4.16877363515602      2.09371020427362     -2.59737917489198
  C   -3.90317247224641      3.10142973263129     -1.96720999656387
  C   -3.56179401695495      4.29154663299894     -1.26247119062348
  C   -4.13599589570979      5.52351204357690     -1.62758647916368
  H   -4.87249933895529      5.55725384979914     -2.43279344296844
  C   -3.75497824485506      6.69141018810167     -0.97455646173043
  H   -4.19932352443663      7.64322364791772     -1.27246690969721
  C   -2.81227760735610      6.65246112395931      0.04807334727489
  H   -2.50858467066757      7.56835035735708      0.55838577842849
  C   -2.24231617209323      5.42443768802591      0.43472753983244
  C   2.56679416901275      5.12176961559406      5.26391615249941
  H   3.36895009197406      5.00522005435044      5.99642835210723
  C   2.10770872383426      6.37614367379408      4.87933055525033
  H   2.54664801249910      7.26853804206079      5.32926870789264
  C   1.10826367717804      6.47103281596550      3.91952647587646
  H   0.73714875597889      7.44268235472174      3.58612352038253
  C   0.56700568351467      5.29563871630495      3.36249871721909
  C   1.07206124812976      4.07186793419309      3.82721296704155
  H   0.67181119026307      3.13145446194790      3.44195042770825
  C   -0.43323418545510      5.32563135058066      2.35823690157029
  C   -1.27274998571141      5.37153255233597      1.47622876227903
  C   -2.62138196243592      4.24683423152412     -0.22455444752672
  Pd  -1.80889514639339     -2.22031840480724     -4.59146787126472
  Pd  2.83585008026709      2.18980644460337      5.23839227909727
  H   3.22627978160208      2.46840090040771     -1.93657751943675
  H   2.95095937782430     -3.51505150119167      0.77238709731049
  H   -2.28975843900743     -2.30991383333705      2.59122246524406
  H   -2.17682034273898      3.29565888761369      0.07146078633542
