146
Coordinates from ORCA-job C-2_benzoquinone
  Pd  6.22176232515252      0.02551024597813     -0.02848849701789
  Pd  -6.22138375756279      0.02679148544372     -0.03171603042213
  N   -6.15814631199090      1.50144001477285     -1.43842252322765
  N   6.15637783043900     -1.44821010580134      1.38093931776805
  N   6.15669112342400      1.50130312662716     -1.43362419355264
  N   -6.15382958899778     -1.44455470352468      1.38001933073502
  N   -6.15284676362970     -1.37402479149872     -1.50870043788413
  N   6.16732582570014      1.42720995673614      1.44646121953323
  N   6.15342702237175     -1.37312429954330     -1.50718828782596
  N   -6.16828804571728      1.43013893779090      1.44165546121893
  C   -7.25691755011093      2.04509154686668     -1.97472243557888
  C   7.25555294959909     -1.99561203607701      1.91285353951373
  H   -8.20944312964484      1.68162375844515     -1.60858762541148
  H   8.20784017118315     -1.63609689896664      1.54233375798167
  C   -7.17788708793279      3.02299272120690     -2.95221613915388
  C   7.17749406663245     -2.97174032943654      2.89228126722914
  H   -8.08532800007181      3.44031717744521     -3.36480659258275
  H   8.08528150355723     -3.39147361407844      3.30168987840604
  C   -5.93441820587790      3.44502676115395     -3.38495289492201
  C   5.93450472041175     -3.38906878267607      3.33093154653500
  H   -5.84258241176757      4.20571473167557     -4.15043418535077
  H   5.84338285934369     -4.14892611862593      4.09734011545079
  C   -4.78517169373475      2.87646486615054     -2.82446153900406
  C   4.78491961288072     -2.81744709827191      2.77444648945185
  C   -4.95051747681450      1.90116111215710     -1.84468305847201
  C   4.94938877810699     -1.84258041423556      1.79399403098981
  H   -4.09312839297980      1.42814721248997     -1.37858057188176
  H   4.09126038164053     -1.36320620096631      1.33588383927492
  C   -3.47540155323734      3.25710694405158     -3.23722919778983
  C   3.47547398589525     -3.19246653346446      3.19409651769289
  C   -2.38166394202430      3.58410706667819     -3.61426261106830
  C   2.38226623467016     -3.51684705780260      3.57502369284873
  C   -1.13271217877820      4.00947600172731     -4.18346171042453
  C   1.13369818573373     -3.93804810343026      4.14838918282666
  C   -1.18522987105725      4.81144965328578     -5.32681712301989
  C   1.18672731218438     -4.73192194304855      5.29737963796480
  H   -2.14253639947286      5.09885863331320     -5.73897850036325
  H   2.14414368551646     -5.01654494957533      5.71127289244630
  C   0.00097823478650      5.21884028241748     -5.90820369482123
  C   0.00066650824570     -5.13474222331137      5.88231991794086
  H   0.00178415309777      5.84052633316696     -6.79354944846192
  H   0.00029233578778     -5.75056098854520      6.77175368650402
  C   1.18608875751168      4.81028563259183     -5.32535975888089
  C   -1.18491557407089     -4.73031604577931      5.29742753381613
  H   2.14414215691994      5.09683928691947     -5.73640773222587
  H   -2.14267272691095     -5.01446700059820      5.71087486215543
  C   1.13149993629396      4.00845613265350     -4.18196261253471
  C   -1.13096096556113     -3.93787920126701      4.14746132858154
  N   -0.00116496208589      3.60372215586392     -3.60119539129122
  N   0.00163606058607     -3.53730788238269      3.56357227966179
  C   7.25509186721636      2.04736013768426     -1.96825049154685
  C   -7.25257999054113     -1.98911885595823      1.91567459916968
  H   8.20785863236458      1.68517216913856     -1.60146854315121
  H   -8.20517260827544     -1.62924335508669      1.54631234174943
  C   7.17532286067342      3.02624203083199     -2.94467946575445
  C   -7.17369048408549     -2.96324966637964      2.89705053017955
  H   8.08234400311762      3.44589582218764     -3.35580916549228
  H   -8.08108777174832     -3.38031066370137      3.31004090354658
  C   5.93139111779013      3.44635157357653     -3.37803105298918
  C   -5.93021189711511     -3.38038556801857      3.33448220362367
  H   5.83888246425660      4.20796023428212     -4.14250654027593
  H   -5.83839505790345     -4.13767442667208      4.10335425457891
  C   4.78255753323105      2.87551919179885     -2.81911745612415
  C   -4.78106162060747     -2.80941339145237      2.77656797455785
  C   4.94863011737804      1.89944147147751     -1.84003018109695
  C   -4.94632496538148     -1.83712573103353      1.79345797901285
  H   4.09166662822043      1.42488033358958     -1.37480226820196
  H   -4.08879858874667     -1.35724254473605      1.33495877084285
  C   3.47274661813166      3.25502444746719     -3.23299234844704
  C   -3.47158230162834     -3.18618392649937      3.19475462811435
  C   2.37944577627555      3.58212993571813     -3.61124430150609
  C   -2.37902622534981     -3.51345038724312      3.57520584091658
  C   -7.25000830249557     -1.91105385498053     -2.05476304505337
  C   7.26328145994555      1.97754246299355      1.98152620196661
  H   -8.20345418528389     -1.55892297740994     -1.67998432555364
  H   8.21728139198742      1.63252893109648      1.60162801647549
  C   -7.16908175530263     -2.87156708797454     -3.04905346126540
  C   7.17977612277255      2.94185015614627      2.97207482326888
  H   -8.07543275627986     -3.28682928681063     -3.46601927943156
  H   8.08493553281480      3.36608913243779      3.38255569621443
  C   -5.92426420429594     -3.28021464966139     -3.49074235066882
  C   5.93405091347964      3.34165703916347      3.41988618319425
  H   -5.82972628667720     -4.02938136713214     -4.26711991833262
  H   5.83822858481915      4.09286699432399      4.19413602596314
  C   -4.77830023777560     -2.71402293294242     -2.92191950603975
  C   4.79002825824657      2.76036749914630      2.86273873675780
  C   -4.94382502740528     -1.75892597055208     -1.92373561195486
  C   4.95797897973571      1.80191557743746      1.86858768063006
  H   -4.08654011159370     -1.30022689405275     -1.44121470544264
  H   4.10191396274351      1.32427196364160      1.40250684795463
  C   -3.46633458332138     -3.09460937430189     -3.32924248661354
  C   3.47548426458549      3.11315310846538      3.28517145251121
  C   -2.37774851024239     -3.45871450385241     -3.68708206711618
  C   2.37841900494280      3.42684263278237      3.66428665731334
  C   -1.13241672454364     -4.02094413491668     -4.12979388431263
  C   1.13042772675668      3.85955423737208      4.22750432513845
  N   0.00020154213347     -3.43314506631383     -3.73236574933395
  N   -0.00141280936151      3.42655255598883      3.66288610071050
  C   1.13358703173551     -4.01878257851163     -4.13070257479947
  C   -1.13339787817907      3.85990468349708      4.22684083817270
  C   1.18724376040937     -5.16464806637059     -4.92813828394877
  C   -1.18637534831504      4.70114677633687      5.34147069259073
  H   2.14516247926729     -5.57948683695853     -5.20942833949179
  H   -2.14454748978011      5.00544492936433      5.73907554944604
  C   0.00168249672976     -5.74730590126297     -5.33599607214737
  C   -0.00174470182468      5.12657332517746      5.91247813368191
  H   0.00224732204153     -6.63507748170138     -5.95426486135152
  H   -0.00187946021465      5.77749603723318      6.77694830555801
  C   -1.18465142507336     -5.16694355529451     -4.92711103550569
  C   1.18306047082015      4.70033490756554      5.34247562960155
  H   -2.14205106358521     -5.58287043391191     -5.20854992757468
  H   2.14110822857037      5.00308798503163      5.74152953572365
  C   7.25065880661905     -1.91002083201413     -2.05313405138091
  C   -7.26489713141572      1.98116745271073      1.97463699194641
  H   8.20400711287250     -1.55889135527350     -1.67719639285305
  H   -8.21845796102561      1.63574679444817      1.59400037145140
  C   7.16987332803918     -2.86930550162970     -3.04866931440171
  C   -7.18258094197947      2.94668546981977      2.96408194725160
  H   8.07620899793785     -3.28490519859272     -3.46535888049841
  H   -8.08822421773709      3.37138053875657      3.37299454211589
  C   5.92501994631567     -3.27735417342874     -3.49091993864933
  C   -5.93741178700278      3.34692483192092      3.41301753043224
  H   5.83059926400341     -4.02627524750985     -4.26754913712728
  H   -5.84247838203088      4.09908563554297      4.18644640878637
  C   4.77892720980572     -2.71180948292042     -2.92162762135179
  C   -4.79273705588166      2.76489139584245      2.85805199629617
  C   4.94440362034814     -1.75756312746898     -1.92253767217287
  C   -4.95947398947939      1.80522767434765      1.86477803866597
  H   4.08711188713843     -1.29920289102805     -1.43969498040607
  H   -4.10290314461118      1.32706724461807      1.40002958608337
  C   -3.47869136081395      3.11679267010384      3.28264615429823
  C   -2.38132752851480      3.42873736868920      3.66234365773184
  C   2.37838188853003     -3.45592487975581     -3.68732971716632
  C   3.46696673142761     -3.09203054459717     -3.32926606152916
  O   -2.66470095533857      0.03112439542996     -0.02578374865781
  O   2.66441167830690      0.03188886162366     -0.02402745821289
  C   -0.66711438937321     -0.62012948728893     -1.11936066956691
  C   0.66679420200505      0.70019205015986      1.05785140661699
  C   0.66770384715383     -0.61914157767203     -1.11940161959610
  C   -0.66794440559040      0.69958524976349      1.05756914402738
  C   -1.43812676186966      0.03611365129865     -0.02882844663855
  C   1.43784624654683      0.03705807650967     -0.02811515714165
  H   -1.23573642436013      1.19421542613983      1.83798915515579
  H   1.23396128856515      1.19505149539816      1.83854026526807
  H   1.23515395821842     -1.10622862611547     -1.90457708974481
  H   -1.23389448470875     -1.10837962379010     -1.90430693103120
