138
Coordinates from ORCA-job C-1_qn_step_loose
  Pd  5.86411880862005     -0.01756973912043     -0.11685523343315
  Pd  -5.87231577795714     -0.00689812706089     -0.06022378024649
  N   -5.87275000846133      1.45635140701240     -1.51056021508339
  N   5.82831807272855     -1.48387669815142      1.33335180864686
  N   5.90132026239829      1.46418787678425     -1.55092753093159
  N   -5.88005027943159     -1.46167718751670      1.39754443397524
  N   -5.85716297530938     -1.48437145419036     -1.49682826804369
  N   5.83550878813100      1.44503506027693      1.33726150809431
  N   5.91262344182585     -1.48947899663452     -1.56306599500130
  N   -5.88787828225067      1.46553705063243      1.38305848930634
  C   -7.02502224193355      1.88043703982486     -2.04661317554944
  C   6.98663843044044     -1.91955774791407      1.84769177982463
  H   -7.92870979524100      1.38422579629269     -1.71511890337467
  H   7.89110211192987     -1.45763851847499      1.47138416701722
  C   -7.06072229902304      2.91541224760535     -2.96494304849761
  C   7.02636863324406     -2.91724400516138      2.80566587839101
  H   -8.00854783038713      3.23873219786754     -3.37144815152854
  H   7.97806887791365     -3.24796946226326      3.19699516461483
  C   -5.88010984161867      3.52889601450217     -3.33681496437744
  C   5.84280304421604     -3.47980367703115      3.24274403514394
  H   -5.87705353420025      4.34548942555686     -4.04685063463423
  H   5.84135837083864     -4.26118702374677      3.99160205552922
  C   -4.67820240782756      3.08437643051835     -2.77965238127384
  C   4.63358769827234     -3.02861015676365      2.70575331335217
  C   -4.71982778683209      2.03039468809029     -1.86863508812280
  C   4.67275734296648     -2.01593907570092      1.74594454236923
  H   -3.81340200470059      1.64996960505256     -1.41368609372829
  H   3.76220330317995     -1.62843792237454      1.30547990274555
  C   -3.43762095930682      3.70778458507932     -3.11297636342086
  C   3.39531461343161     -3.59963254109310      3.13349523915314
  C   -2.41046656198744      4.25947256614684     -3.41143787996231
  C   2.38908341968362     -4.12066300916392      3.54162332060579
  C   -1.18734762079670      4.91672256540213     -3.75522759162863
  C   1.17104159196448     -4.72104052035242      3.99727325489347
  C   -1.19911686303046      6.15707807960468     -4.39959661728083
  C   1.17944628590291     -5.87857846372197      4.78390998277249
  H   -2.14312287236994      6.62576611303474     -4.64511572954331
  H   2.12286304195890     -6.32522417600787      5.07017911575863
  C   -0.00103330002285      6.78252286563034     -4.70959203060421
  C   -0.01880008125759     -6.44971513387805      5.18698667823906
  H   -0.01152918135669      7.74779327971241     -5.19832352684964
  H   -0.00972321648274     -7.34734195615151      5.79103781425474
  C   1.21077119434528      6.18244402696579     -4.40225861137818
  C   -1.22845534817352     -5.88045251018749      4.81595981110781
  H   2.14458617964455      6.67059503292622     -4.64879459419765
  H   -2.16438475569222     -6.32729367196147      5.12586503998855
  C   1.22642044615803      4.94061997918149     -3.76117428572568
  C   -1.24206132585022     -4.72308983199303      4.02965252092240
  C   0.02656736208624      4.30892485127675     -3.44537763938211
  C   -0.04123467950784     -4.14495539879970      3.62425994048148
  H   0.04035948907114      3.34228879001012     -2.96089873249804
  H   -0.04912306404033     -3.25088439060123      3.01612618557742
  C   7.06130812564214      1.87934549055257     -2.07767696544597
  C   -7.04748798496181     -1.89952705267423      1.88818377009072
  H   7.95755763645888      1.36624525484289     -1.75203010396754
  H   -7.94473820044817     -1.43655338599783      1.49609697110984
  C   7.11332163600399      2.92989216717891     -2.97813337576488
  C   -7.10526375537214     -2.89922653834891      2.84303562343487
  H   8.06611684525585      3.25035318008647     -3.37528997960014
  H   -8.06434878092514     -3.23013484945467      3.21591731758258
  C   5.94113798060211      3.56274491892755     -3.34549398161039
  C   -5.93069454147612     -3.46625104892276      3.29988629912810
  H   5.95199878158200      4.39127598201544     -4.04156530540486
  H   -5.94375357821585     -4.25378093366369      4.04214502342636
  C   4.73108374228548      3.12323356438889     -2.80512671034685
  C   -4.71274997806649     -3.01526587533321      2.78387123712663
  C   4.75723671688048      2.05714745464682     -1.90533858772401
  C   -4.73384633132615     -1.99620150155028      1.83148168774571
  H   3.84411670574419      1.68217148671323     -1.45974004703938
  H   -3.81382856998219     -1.60831262483505      1.41143549082160
  C   3.49515289880616      3.75303285551708     -3.14235271278374
  C   -3.48009270375268     -3.59536506594513      3.21382098514718
  C   2.46190798484255      4.29819229235991     -3.43204807376600
  C   -2.47047196841176     -4.12136450907416      3.60660930869144
  C   -7.00454849742314     -1.91212912839136     -2.04105560077404
  C   6.99473527431518      1.87892195110994      1.85087831139829
  H   -7.91231106496501     -1.41886146142211     -1.71589360668254
  H   7.89774811180346      1.40972493203613      1.47974738724771
  C   -7.03092579306613     -2.94683248956626     -2.96070062590179
  C   7.03749235666581      2.88504209574745      2.80053843449192
  H   -7.97419008117797     -3.27437459941777     -3.37433176816650
  H   7.99020608061253      3.21441598239368      3.19060424679592
  C   -5.84399415374288     -3.55110799073757     -3.32511174700981
  C   5.85619896622257      3.45946657957662      3.22701089824220
  H   -5.83155318845550     -4.36559362149892     -4.03773836891089
  H   5.85704349958120      4.25053426107355      3.96556635507568
  C   -4.64603593564449     -3.10052282983338     -2.76523208307644
  C   4.64647569959069      3.01112472433328      2.68969540614667
  C   -4.69844112072036     -2.05201463603677     -1.84713154787441
  C   4.68204548220587      1.98695968218605      1.74223468312458
  H   -3.79608219048993     -1.66558845165674     -1.38911696212807
  H   3.77034350938629      1.60394211317029      1.30022894318860
  C   -3.40267660925819     -3.71177127555939     -3.11087709721230
  C   3.40976189038686      3.59467130051273      3.10260636983020
  C   -2.37979715585202     -4.25942901585790     -3.43162179386078
  C   2.40017108577351      4.12384442458796      3.49089081525343
  C   -1.16123327150370     -4.91045784539159     -3.80339615600760
  C   1.18090402686464      4.73716682680177      3.92460685652586
  C   0.05625686360235     -4.31870307190695     -3.47802016260775
  C   -0.03281818980006      4.16195281888041      3.55459840085250
  H   0.07401444101009     -3.37234781666809     -2.95516170645175
  H   -0.04275406344152      3.25444447455782      2.96666627066941
  C   1.25131045131651     -4.93788315774964     -3.83494340898508
  C   -1.23306587676776      4.75512777434605      3.94121068557633
  C   1.22650984793689     -6.15265464159680     -4.52692874807984
  C   -1.21646176861693      5.92807778539894      4.70436293979360
  H   2.15722956021079     -6.62976916839865     -4.80480173309634
  H   -2.14926546862119      6.39044256538431      5.00007139537324
  C   0.01089594810751     -6.73809638867077     -4.84766164141715
  C   -0.00554273315091      6.49570801795105      5.07311750306523
  H   -0.00634057606805     -7.68156967859185     -5.37703065495763
  H   0.00496814462726      7.40534975813240      5.65892520816041
  C   -1.18245524816276     -6.12455904532743     -4.49761490949841
  C   1.19166467259681      5.90833419535277      4.69062813543923
  H   -2.13013479326837     -6.58087927110941     -4.75228678347575
  H   2.13602969630300      6.35405361520208      4.97539793621496
  C   7.07607026603520     -1.89314068576902     -2.09178181817736
  C   -7.05348537541871      1.89550049272376      1.88613488766835
  H   7.96819071104083     -1.37714545811917     -1.75971801993241
  H   -7.95173843890978      1.42327020424398      1.50825220182025
  C   7.13546267467164     -2.92989978750314     -3.00782994271666
  C   -7.10720001248493      2.90095680937451      2.83590224489198
  H   8.09027160716314     -3.23969644148530     -3.40863683375851
  H   -8.06370205810475      3.22910766403187      3.21775101271859
  C   5.96608262859197     -3.56104240305424     -3.38668016087525
  C   -5.93066823407107      3.47872502817072      3.27122544871845
  H   5.98141876789009     -4.37854109717130     -4.09563610992517
  H   -5.94081612477763      4.26989840205179      4.00967675638188
  C   4.75268884954704     -3.13579305432366     -2.84241262288422
  C   -4.71516003378398      3.03533310359306      2.74524227266040
  C   4.77205628278545     -2.08348696325315     -1.92662993642556
  C   -4.74034611575983      2.01252855953155      1.79663497701823
  H   3.85644886793051     -1.72000069368264     -1.47696682267485
  H   -3.82251765684404      1.63225866151357      1.36511731100707
  C   -3.48094045490645      3.62444473675747      3.15679119510783
  C   -2.46522630137780      4.15266830063617      3.53017596717583
  C   2.48983614248258     -4.30817939443733     -3.49421215911139
  C   3.52071460230970     -3.76571871757598     -3.19172271229746
